[TITLE]		
Scenario:	»ù´¡	
Date:	2013-9-11	19:48:06

[JUNCTIONS]		
1	9.2	0
2	8	0
3	10.2	0
4	10	0
5	11	0
6	15	0
7	12	0
8	11.4	0
9	10.5	0
10	12	0
11	12.9	0			
12	17.6	0
13	12	0
14	10.6	0
15	9	0
16	11.8	0
17	14.5	0
18	10.9	0
19	10	0
20	10.6	0
21	9.3	0			
22	11.5	0			
23	18	0
24	10	0
25	10.8	0
26	13.3	0
27	9	0
28	10.4	0
29	11.2	0
30	9.5	0
31	9.2	0
32	20.5	0
33	9.6	0
34	18	0
35	18.8	0
36	11.7	0
37	9.4	0
38	9.1	0
39	9.8	0
40	12	0
41	30.5	0
42	12	0
43	12.1	0
44	15	0
45	9.1	0
46	9.6	0
47	15.5	0
48	18.8	0
49	9.7	0


[RESERVOIRS]		
50	76.95
53	81.98
52	83.58
51	74.31

[DEMANDS]	
1	40
2	82
3	56
4	69
5	99
6	233
7	121
8	266
9	276
10	205
11	27
12	174
13	147
14	151
15	47
16	76
17	122
18	123
19	120
20	59
21	116
22	286
23	194
24	100
25	138
26	76
27	83
28	220
29	168
30	117
31	14
32	141
33	96
34	85
35	82
36	123
37	86
38	191
39	47
40	210
41	80
42	137
43	72
44	39
45	38
46	28
47	408
48	28
49	94


[EMITTERS]		

[PIPES]		
1	1	2	1200	1400	80
2	1	3	1400	900	120
3	2	3	800	300	120
4	3	4	2000	300	120
5	3	5	1300	900	120
6	2	6	2100	750	120
7	2	7	2600	600	120
8	2	8	3500	1000	120
9	8	9	800	1000	120
10	9	18	600	700	120
11	9	10	1300	300	120
12	13	10	1300	300	120
13	8	12	3700	500	120
14	12	13	1450	500	120
15	14	13	500	500	120
16	6	7	1400	600	120
17	7	9	1500	500	120
18	7	18	1100	500	120
19	18	17	900	500	120
20	18	19	1400	500	120
21	9	14	1200	850	120
22	14	26	1600	500	120
23	14	19	700	500	120
24	7	17	1000	600	120
25	4	15	1750	300	120
26	5	4	2300	500	120
27	5	16	1100	900	120
28	6	24	2600	500	120
29	17	25	750	600	120
30	25	19	1300	500	120
31	19	26	1600	500	120
32	15	20	500	300	120
33	15	21	1400	200	120
34	16	21	2900	500	120
35	16	23	2700	700	120
36	27	20	1200	500	120
37	27	21	1050	500	120
38	21	22	1200	500	120
39	33	34	1000	500	120
40	34	27	1500	500	120
41	41	34	1000	600	120
42	28	22	2000	300	120
43	29	22	2900	500	120
44	49	41	3000	1600	90
45	41	35	1700	1400	90
46	35	36	850	1400	90
47	36	28	1400	1100	100
48	28	29	1100	1100	100
49	23	29	950	850	90
50	23	24	950	500	120
51	24	25	900	500	120
52	29	30	3000	700	120
53	41	47	3150	500	120
54	35	42	1200	500	120
55	42	47	1500	500	120
56	42	43	1000	500	120
57	36	43	1100	500	120
58	43	48	3600	1000	120
59	48	44	800	1000	120
60	37	44	1750	600	120
61	30	37	1100	500	120
62	37	45	550	500	120
63	45	38	480	400	120
64	25	38	2820	700	120
65	38	46	680	600	120
66	40	46	550	500	120
67	44	40	2800	700	120
68	46	39	1000	500	120
69	31	39	1400	300	120
70	26	31	650	500	120
71	26	32	1400	500	120
72	39	32	1000	500	120
73	11	12	900	500	120
74	24	30	1100	500	120
75	50	1	1742	1000	120
76	11	51	6636.3	500	120
77	49	52	4262.8	1000	120
78	33	53	8577.1	500	120

[COORDINATES]		
2	0	-5
1	0	0
3	5	0
5	5	-5
4	10	-5
6	0	-10
7	-5	-10
8	-25	-5
9	-15	-10
10	-20	-10
11	-30	-20
12	-25	-20
13	-20	-20
14	-15	-20
15	25	-5
16	5	-10
17	-5	-15
18	-10	-15
19	-10	-20
20	30	-5
21	25	-10
22	15	-15
23	5	-20
24	0	-20
25	-5	-20
26	-15	-25
27	30	-10
28	15	-20
29	10	-20
30	10	-25
31	-10	-25
32	-15	-35
33	35	-15
34	30	-15
35	25	-20
36	20	-20
37	10	-30
38	-5	-30
39	-10	-35
40	15	-35
41	30	-20
42	25	-25
43	20	-25
44	15	-30
45	3	-30
46	-5	-35
47	30	-25
48	20	-30
49	35	-20
53	40	-15
52	40	-20
51	-30	-25
50	-5	0

[VERTICES]		

[OPTIONS]		
UNITS	LPS	
TRIALS	40	
ACCURACY	0.001	
EMITTER	0.5	
SPECIFIC	GRAVITY	0.998
HEADLOSS	H-W	
QUALITY	NONE	

[TIMES]		
REPORT	START	0
PATTERN	TIMESTEP	1
QUALITY	TIMESTEP	0
