[TITLE]

[JUNCTIONS]
1 	 9.200000
2 	 8.000000
3 	 10.200000
4 	 10.000000
5 	 11.000000
6 	 15.000000
7 	 12.000000
8 	 11.400000
9 	 10.500000
10 	 12.000000
11 	 12.900000
12 	 17.600000
13 	 12.000000
14 	 10.600000
15 	 9.000000
16 	 11.800000
17 	 14.500000
18 	 10.900000
19 	 10.000000
20 	 10.600000
21 	 9.300000
22 	 11.500000
23 	 18.000000
24 	 10.000000
25 	 10.800000
26 	 13.300000
27 	 9.000000
28 	 10.400000
29 	 11.200000
30 	 9.500000
31 	 9.200000
32 	 20.500000
33 	 9.600000
34 	 18.000000
35 	 18.800000
36 	 11.700000
37 	 9.400000
38 	 9.100000
39 	 9.800000
40 	 12.000000
41 	 30.500000
42 	 12.000000
43 	 12.100000
44 	 15.000000
45 	 9.100000
46 	 9.600000
47 	 15.500000
48 	 18.800000
49 	 9.700000
add_node-8-1 	 10.276196
add_node-12-1 	 12.000000
add_node-13-1 	 17.125443
add_node-14-1 	 16.530045
add_node-19-1 	 11.283744
add_node-22-1 	 11.827703
add_node-25-1 	 9.115588
add_node-30-1 	 10.366275
add_node-53-1 	 17.981145
add_node-57-1 	 12.067453
add_node-58-1 	 16.553718
add_node-67-1 	 12.002632
add_node-74-1 	 9.515892
add_node-77-1 	 78.031099

[RESERVOIRS]
50 	 76.950000
53 	 81.980000
52 	 83.580000
51 	 74.310000

[PIPES]
1 	 1 	2 	 1200.000000 	 1400.000000 	 80.000000 	 0.000000
2 	 1 	3 	 1400.000000 	 900.000000 	 120.000000 	 0.000000
3 	 2 	3 	 800.000000 	 300.000000 	 120.000000 	 0.000000
4 	 3 	4 	 2000.000000 	 300.000000 	 120.000000 	 0.000000
5 	 3 	5 	 1300.000000 	 900.000000 	 120.000000 	 0.000000
6 	 2 	6 	 2100.000000 	 750.000000 	 120.000000 	 0.000000
7 	 2 	7 	 2600.000000 	 600.000000 	 120.000000 	 0.000000
9 	 8 	9 	 800.000000 	 1000.000000 	 120.000000 	 0.000000
10 	 9 	18 	 600.000000 	 700.000000 	 120.000000 	 0.000000
11 	 9 	10 	 1300.000000 	 300.000000 	 120.000000 	 0.000000
15 	 14 	13 	 500.000000 	 500.000000 	 120.000000 	 0.000000
16 	 6 	7 	 1400.000000 	 600.000000 	 120.000000 	 0.000000
17 	 7 	9 	 1500.000000 	 500.000000 	 120.000000 	 0.000000
18 	 7 	18 	 1100.000000 	 500.000000 	 120.000000 	 0.000000
20 	 18 	19 	 1400.000000 	 500.000000 	 120.000000 	 0.000000
21 	 9 	14 	 1200.000000 	 850.000000 	 120.000000 	 0.000000
23 	 14 	19 	 700.000000 	 500.000000 	 120.000000 	 0.000000
24 	 7 	17 	 1000.000000 	 600.000000 	 120.000000 	 0.000000
26 	 5 	4 	 2300.000000 	 500.000000 	 120.000000 	 0.000000
27 	 5 	16 	 1100.000000 	 900.000000 	 120.000000 	 0.000000
28 	 6 	24 	 2600.000000 	 500.000000 	 120.000000 	 0.000000
29 	 17 	25 	 750.000000 	 600.000000 	 120.000000 	 0.000000
31 	 19 	26 	 1600.000000 	 500.000000 	 120.000000 	 0.000000
32 	 15 	20 	 500.000000 	 300.000000 	 120.000000 	 0.000000
33 	 15 	21 	 1400.000000 	 200.000000 	 120.000000 	 0.000000
34 	 16 	21 	 2900.000000 	 500.000000 	 120.000000 	 0.000000
35 	 16 	23 	 2700.000000 	 700.000000 	 120.000000 	 0.000000
36 	 27 	20 	 1200.000000 	 500.000000 	 120.000000 	 0.000000
37 	 27 	21 	 1050.000000 	 500.000000 	 120.000000 	 0.000000
38 	 21 	22 	 1200.000000 	 500.000000 	 120.000000 	 0.000000
39 	 33 	34 	 1000.000000 	 500.000000 	 120.000000 	 0.000000
40 	 34 	27 	 1500.000000 	 500.000000 	 120.000000 	 0.000000
41 	 41 	34 	 1000.000000 	 600.000000 	 120.000000 	 0.000000
42 	 28 	22 	 2000.000000 	 300.000000 	 120.000000 	 0.000000
43 	 29 	22 	 2900.000000 	 500.000000 	 120.000000 	 0.000000
44 	 49 	41 	 3000.000000 	 1600.000000 	 90.000000 	 0.000000
45 	 41 	35 	 1700.000000 	 1400.000000 	 90.000000 	 0.000000
46 	 35 	36 	 850.000000 	 1400.000000 	 90.000000 	 0.000000
47 	 36 	28 	 1400.000000 	 1100.000000 	 100.000000 	 0.000000
48 	 28 	29 	 1100.000000 	 1100.000000 	 100.000000 	 0.000000
49 	 23 	29 	 950.000000 	 850.000000 	 90.000000 	 0.000000
50 	 23 	24 	 950.000000 	 500.000000 	 120.000000 	 0.000000
51 	 24 	25 	 900.000000 	 500.000000 	 120.000000 	 0.000000
52 	 29 	30 	 3000.000000 	 700.000000 	 120.000000 	 0.000000
54 	 35 	42 	 1200.000000 	 500.000000 	 120.000000 	 0.000000
55 	 42 	47 	 1500.000000 	 500.000000 	 120.000000 	 0.000000
56 	 42 	43 	 1000.000000 	 500.000000 	 120.000000 	 0.000000
59 	 48 	44 	 800.000000 	 1000.000000 	 120.000000 	 0.000000
60 	 37 	44 	 1750.000000 	 600.000000 	 120.000000 	 0.000000
61 	 30 	37 	 1100.000000 	 500.000000 	 120.000000 	 0.000000
62 	 37 	45 	 550.000000 	 500.000000 	 120.000000 	 0.000000
63 	 45 	38 	 480.000000 	 400.000000 	 120.000000 	 0.000000
64 	 25 	38 	 2820.000000 	 700.000000 	 120.000000 	 0.000000
65 	 38 	46 	 680.000000 	 600.000000 	 120.000000 	 0.000000
66 	 40 	46 	 550.000000 	 500.000000 	 120.000000 	 0.000000
68 	 46 	39 	 1000.000000 	 500.000000 	 120.000000 	 0.000000
69 	 31 	39 	 1400.000000 	 300.000000 	 120.000000 	 0.000000
70 	 26 	31 	 650.000000 	 500.000000 	 120.000000 	 0.000000
71 	 26 	32 	 1400.000000 	 500.000000 	 120.000000 	 0.000000
72 	 39 	32 	 1000.000000 	 500.000000 	 120.000000 	 0.000000
73 	 11 	12 	 900.000000 	 500.000000 	 120.000000 	 0.000000
75 	 50 	1 	 1742.000000 	 1000.000000 	 120.000000 	 0.000000
76 	 11 	51 	 6636.300000 	 500.000000 	 120.000000 	 0.000000
78 	 33 	53 	 8577.100000 	 500.000000 	 120.000000 	 0.000000
addP-8-1 	 2 	add_node-8-1 	 2343.143331 	 1000.000000 	 120.000000 	 0.000000
addP-12-1 	 13 	add_node-12-1 	 241.665513 	 300.000000 	 120.000000 	 0.000000
addP-13-1 	 8 	add_node-13-1 	 3416.796641 	 500.000000 	 120.000000 	 0.000000
addP-14-1 	 12 	add_node-14-1 	 277.042035 	 500.000000 	 120.000000 	 0.000000
addP-19-1 	 18 	add_node-19-1 	 95.935887 	 500.000000 	 120.000000 	 0.000000
addP-22-1 	 14 	add_node-22-1 	 727.527740 	 500.000000 	 120.000000 	 0.000000
addP-25-1 	 4 	add_node-25-1 	 1547.721288 	 300.000000 	 120.000000 	 0.000000
addP-30-1 	 25 	add_node-30-1 	 704.802526 	 500.000000 	 120.000000 	 0.000000
addP-53-1 	 41 	add_node-53-1 	 2628.959484 	 500.000000 	 120.000000 	 0.000000
addP-57-1 	 36 	add_node-57-1 	 1010.496692 	 500.000000 	 120.000000 	 0.000000
addP-58-1 	 43 	add_node-58-1 	 2393.042353 	 1000.000000 	 120.000000 	 0.000000
addP-67-1 	 44 	add_node-67-1 	 2797.543360 	 700.000000 	 120.000000 	 0.000000
addP-74-1 	 24 	add_node-74-1 	 1065.037038 	 500.000000 	 120.000000 	 0.000000
addP-77-1 	 49 	add_node-77-1 	 3942.634115 	 1000.000000 	 120.000000 	 0.000000

[EMITTERS]
add_node-8-1 	 25710.040295
add_node-12-1 	 2313.903627
add_node-13-1 	 6427.510074
add_node-14-1 	 6427.510074
add_node-19-1 	 6427.510074
add_node-22-1 	 6427.510074
add_node-25-1 	 2313.903627
add_node-30-1 	 6427.510074
add_node-53-1 	 6427.510074
add_node-57-1 	 6427.510074
add_node-58-1 	 25710.040295
add_node-67-1 	 12597.919744
add_node-74-1 	 6427.510074
add_node-77-1 	 25710.040295

[DEMANDS]
1 	 40.000000
2 	 82.000000
3 	 56.000000
4 	 69.000000
5 	 99.000000
6 	 233.000000
7 	 121.000000
8 	 266.000000
9 	 276.000000
10 	 205.000000
11 	 27.000000
12 	 174.000000
13 	 147.000000
14 	 151.000000
15 	 47.000000
16 	 76.000000
17 	 122.000000
18 	 123.000000
19 	 120.000000
20 	 59.000000
21 	 116.000000
22 	 286.000000
23 	 194.000000
24 	 100.000000
25 	 138.000000
26 	 76.000000
27 	 83.000000
28 	 220.000000
29 	 168.000000
30 	 117.000000
31 	 14.000000
32 	 141.000000
33 	 96.000000
34 	 85.000000
35 	 82.000000
36 	 123.000000
37 	 86.000000
38 	 191.000000
39 	 47.000000
40 	 210.000000
41 	 80.000000
42 	 137.000000
43 	 72.000000
44 	 39.000000
45 	 38.000000
46 	 28.000000
47 	 408.000000
48 	 28.000000
49 	 94.000000
add_node-8-1 	 0.000000
add_node-12-1 	 0.000000
add_node-13-1 	 0.000000
add_node-14-1 	 0.000000
add_node-19-1 	 0.000000
add_node-22-1 	 0.000000
add_node-25-1 	 0.000000
add_node-30-1 	 0.000000
add_node-53-1 	 0.000000
add_node-57-1 	 0.000000
add_node-58-1 	 0.000000
add_node-67-1 	 0.000000
add_node-74-1 	 0.000000
add_node-77-1 	 0.000000

[OPTIONS]
UNITS 	 LPS 	 
PRESSURE 	 METERS 	 
HEADLOSS 	 H-W 	 
UNBALANCED 	 STOP 	 
QUALITY 	 NONE 	 
DEMAND 	 MULTIPLIER 	 1.0000
EMITTER 	 EXPONENT 	 0.5000
VISCOSITY 	 1.000000 	 
DIFFUSIVITY 	 1.000000 	 
SPECIFIC 	 GRAVITY 	 0.998000
TRIALS 	 40 	 
ACCURACY 	 0.00100000 	 
TOLERANCE 	 0.01000000 	 
CHECKFREQ 	 2 	 
MAXCHECK 	 10 	 
DAMPLIMIT 	 0.00000000 	 

[COORDINATES]
2 	 0.000000 	 -5.000000
1 	 0.000000 	 0.000000
3 	 5.000000 	 0.000000
5 	 5.000000 	 -5.000000
4 	 10.000000 	 -5.000000
6 	 0.000000 	 -10.000000
7 	 -5.000000 	 -10.000000
8 	 -25.000000 	 -5.000000
9 	 -15.000000 	 -10.000000
10 	 -20.000000 	 -10.000000
11 	 -30.000000 	 -20.000000
12 	 -25.000000 	 -20.000000
13 	 -20.000000 	 -20.000000
14 	 -15.000000 	 -20.000000
15 	 25.000000 	 -5.000000
16 	 5.000000 	 -10.000000
17 	 -5.000000 	 -15.000000
18 	 -10.000000 	 -15.000000
19 	 -10.000000 	 -20.000000
20 	 30.000000 	 -5.000000
21 	 25.000000 	 -10.000000
22 	 15.000000 	 -15.000000
23 	 5.000000 	 -20.000000
24 	 0.000000 	 -20.000000
25 	 -5.000000 	 -20.000000
26 	 -15.000000 	 -25.000000
27 	 30.000000 	 -10.000000
28 	 15.000000 	 -20.000000
29 	 10.000000 	 -20.000000
30 	 10.000000 	 -25.000000
31 	 -10.000000 	 -25.000000
32 	 -15.000000 	 -35.000000
33 	 35.000000 	 -15.000000
34 	 30.000000 	 -15.000000
35 	 25.000000 	 -20.000000
36 	 20.000000 	 -20.000000
37 	 10.000000 	 -30.000000
38 	 -5.000000 	 -30.000000
39 	 -10.000000 	 -35.000000
40 	 15.000000 	 -35.000000
41 	 30.000000 	 -20.000000
42 	 25.000000 	 -25.000000
43 	 20.000000 	 -25.000000
44 	 15.000000 	 -30.000000
45 	 3.000000 	 -30.000000
46 	 -5.000000 	 -35.000000
47 	 30.000000 	 -25.000000
48 	 20.000000 	 -30.000000
49 	 35.000000 	 -20.000000
53 	 40.000000 	 -15.000000
52 	 40.000000 	 -20.000000
51 	 -30.000000 	 -25.000000
50 	 -5.000000 	 0.000000
add_node-8-1 	 -16.736738 	 -5.000000
add_node-12-1 	 -20.000000 	 -18.141035
add_node-13-1 	 -25.000000 	 -18.851878
add_node-14-1 	 -24.044683 	 -20.000000
add_node-19-1 	 -9.467023 	 -15.000000
add_node-22-1 	 -15.000000 	 -22.273524
add_node-25-1 	 23.266182 	 -5.000000
add_node-30-1 	 -7.710779 	 -20.000000
add_node-53-1 	 30.000000 	 -24.172952
add_node-57-1 	 20.000000 	 -24.593167
add_node-58-1 	 20.000000 	 -28.323670
add_node-67-1 	 15.000000 	 -34.995613
add_node-74-1 	 9.682155 	 -24.841077
add_node-77-1 	 39.624465 	 -20.000000

[END]