[TITLE]

[JUNCTIONS]
1 	 9.200000
2 	 8.000000
3 	 10.200000
4 	 10.000000
5 	 11.000000
6 	 15.000000
7 	 12.000000
8 	 11.400000
9 	 10.500000
10 	 12.000000
11 	 12.900000
12 	 17.600000
13 	 12.000000
14 	 10.600000
15 	 9.000000
16 	 11.800000
17 	 14.500000
18 	 10.900000
19 	 10.000000
20 	 10.600000
21 	 9.300000
22 	 11.500000
23 	 18.000000
24 	 10.000000
25 	 10.800000
26 	 13.300000
27 	 9.000000
28 	 10.400000
29 	 11.200000
30 	 9.500000
31 	 9.200000
32 	 20.500000
33 	 9.600000
34 	 18.000000
35 	 18.800000
36 	 11.700000
37 	 9.400000
38 	 9.100000
39 	 9.800000
40 	 12.000000
41 	 30.500000
42 	 12.000000
43 	 12.100000
44 	 15.000000
45 	 9.100000
46 	 9.600000
47 	 15.500000
48 	 18.800000
49 	 9.700000
add_node-3-1 	 8.015319
add_node-4-1 	 10.097909
add_node-12-1 	 12.000000
add_node-16-1 	 12.955929
add_node-28-1 	 14.777877
add_node-41-1 	 20.557769
add_node-51-1 	 10.127498
add_node-56-1 	 12.039993
add_node-77-1 	 17.933430
add_node-78-1 	 66.076759

[RESERVOIRS]
50 	 76.950000
53 	 81.980000
52 	 83.580000
51 	 74.310000
add_node-22-1 	 10.924962

[PIPES]
1 	 1 	2 	 1200.000000 	 1400.000000 	 80.000000 	 0.000000
2 	 1 	3 	 1400.000000 	 900.000000 	 120.000000 	 0.000000
5 	 3 	5 	 1300.000000 	 900.000000 	 120.000000 	 0.000000
6 	 2 	6 	 2100.000000 	 750.000000 	 120.000000 	 0.000000
7 	 2 	7 	 2600.000000 	 600.000000 	 120.000000 	 0.000000
8 	 2 	8 	 3500.000000 	 1000.000000 	 120.000000 	 0.000000
9 	 8 	9 	 800.000000 	 1000.000000 	 120.000000 	 0.000000
10 	 9 	18 	 600.000000 	 700.000000 	 120.000000 	 0.000000
11 	 9 	10 	 1300.000000 	 300.000000 	 120.000000 	 0.000000
13 	 8 	12 	 3700.000000 	 500.000000 	 120.000000 	 0.000000
14 	 12 	13 	 1450.000000 	 500.000000 	 120.000000 	 0.000000
15 	 14 	13 	 500.000000 	 500.000000 	 120.000000 	 0.000000
17 	 7 	9 	 1500.000000 	 500.000000 	 120.000000 	 0.000000
18 	 7 	18 	 1100.000000 	 500.000000 	 120.000000 	 0.000000
19 	 18 	17 	 900.000000 	 500.000000 	 120.000000 	 0.000000
20 	 18 	19 	 1400.000000 	 500.000000 	 120.000000 	 0.000000
21 	 9 	14 	 1200.000000 	 850.000000 	 120.000000 	 0.000000
23 	 14 	19 	 700.000000 	 500.000000 	 120.000000 	 0.000000
24 	 7 	17 	 1000.000000 	 600.000000 	 120.000000 	 0.000000
25 	 4 	15 	 1750.000000 	 300.000000 	 120.000000 	 0.000000
26 	 5 	4 	 2300.000000 	 500.000000 	 120.000000 	 0.000000
27 	 5 	16 	 1100.000000 	 900.000000 	 120.000000 	 0.000000
29 	 17 	25 	 750.000000 	 600.000000 	 120.000000 	 0.000000
30 	 25 	19 	 1300.000000 	 500.000000 	 120.000000 	 0.000000
31 	 19 	26 	 1600.000000 	 500.000000 	 120.000000 	 0.000000
32 	 15 	20 	 500.000000 	 300.000000 	 120.000000 	 0.000000
33 	 15 	21 	 1400.000000 	 200.000000 	 120.000000 	 0.000000
34 	 16 	21 	 2900.000000 	 500.000000 	 120.000000 	 0.000000
35 	 16 	23 	 2700.000000 	 700.000000 	 120.000000 	 0.000000
36 	 27 	20 	 1200.000000 	 500.000000 	 120.000000 	 0.000000
37 	 27 	21 	 1050.000000 	 500.000000 	 120.000000 	 0.000000
38 	 21 	22 	 1200.000000 	 500.000000 	 120.000000 	 0.000000
39 	 33 	34 	 1000.000000 	 500.000000 	 120.000000 	 0.000000
40 	 34 	27 	 1500.000000 	 500.000000 	 120.000000 	 0.000000
42 	 28 	22 	 2000.000000 	 300.000000 	 120.000000 	 0.000000
43 	 29 	22 	 2900.000000 	 500.000000 	 120.000000 	 0.000000
44 	 49 	41 	 3000.000000 	 1600.000000 	 90.000000 	 0.000000
45 	 41 	35 	 1700.000000 	 1400.000000 	 90.000000 	 0.000000
46 	 35 	36 	 850.000000 	 1400.000000 	 90.000000 	 0.000000
47 	 36 	28 	 1400.000000 	 1100.000000 	 100.000000 	 0.000000
48 	 28 	29 	 1100.000000 	 1100.000000 	 100.000000 	 0.000000
49 	 23 	29 	 950.000000 	 850.000000 	 90.000000 	 0.000000
50 	 23 	24 	 950.000000 	 500.000000 	 120.000000 	 0.000000
52 	 29 	30 	 3000.000000 	 700.000000 	 120.000000 	 0.000000
53 	 41 	47 	 3150.000000 	 500.000000 	 120.000000 	 0.000000
54 	 35 	42 	 1200.000000 	 500.000000 	 120.000000 	 0.000000
55 	 42 	47 	 1500.000000 	 500.000000 	 120.000000 	 0.000000
57 	 36 	43 	 1100.000000 	 500.000000 	 120.000000 	 0.000000
58 	 43 	48 	 3600.000000 	 1000.000000 	 120.000000 	 0.000000
59 	 48 	44 	 800.000000 	 1000.000000 	 120.000000 	 0.000000
60 	 37 	44 	 1750.000000 	 600.000000 	 120.000000 	 0.000000
61 	 30 	37 	 1100.000000 	 500.000000 	 120.000000 	 0.000000
62 	 37 	45 	 550.000000 	 500.000000 	 120.000000 	 0.000000
63 	 45 	38 	 480.000000 	 400.000000 	 120.000000 	 0.000000
64 	 25 	38 	 2820.000000 	 700.000000 	 120.000000 	 0.000000
65 	 38 	46 	 680.000000 	 600.000000 	 120.000000 	 0.000000
66 	 40 	46 	 550.000000 	 500.000000 	 120.000000 	 0.000000
67 	 44 	40 	 2800.000000 	 700.000000 	 120.000000 	 0.000000
68 	 46 	39 	 1000.000000 	 500.000000 	 120.000000 	 0.000000
69 	 31 	39 	 1400.000000 	 300.000000 	 120.000000 	 0.000000
70 	 26 	31 	 650.000000 	 500.000000 	 120.000000 	 0.000000
71 	 26 	32 	 1400.000000 	 500.000000 	 120.000000 	 0.000000
72 	 39 	32 	 1000.000000 	 500.000000 	 120.000000 	 0.000000
73 	 11 	12 	 900.000000 	 500.000000 	 120.000000 	 0.000000
74 	 24 	30 	 1100.000000 	 500.000000 	 120.000000 	 0.000000
75 	 50 	1 	 1742.000000 	 1000.000000 	 120.000000 	 0.000000
76 	 11 	51 	 6636.300000 	 500.000000 	 120.000000 	 0.000000
addP-3-1 	 2 	add_node-3-1 	 5.570438 	 300.000000 	 120.000000 	 0.000000
addP-4-1 	 3 	add_node-4-1 	 1020.911172 	 300.000000 	 120.000000 	 0.000000
addP-12-1 	 13 	add_node-12-1 	 1241.262437 	 300.000000 	 120.000000 	 0.000000
addP-16-1 	 6 	add_node-16-1 	 953.899634 	 600.000000 	 120.000000 	 0.000000
addP-22-1 	 14 	add_node-22-1 	 192.570199 	 500.000000 	 120.000000 	 0.000000
addP-28-1 	 6 	add_node-28-1 	 115.503793 	 500.000000 	 120.000000 	 0.000000
addP-41-1 	 41 	add_node-41-1 	 795.378462 	 600.000000 	 120.000000 	 0.000000
addP-51-1 	 24 	add_node-51-1 	 143.435290 	 500.000000 	 120.000000 	 0.000000
addP-56-1 	 42 	add_node-56-1 	 399.925183 	 500.000000 	 120.000000 	 0.000000
addP-77-1 	 49 	add_node-77-1 	 475.060463 	 1000.000000 	 120.000000 	 0.000000
addP-78-1 	 33 	add_node-78-1 	 6692.550602 	 500.000000 	 120.000000 	 0.000000

[EMITTERS]
add_node-3-1 	 2313.903627
add_node-4-1 	 2313.903627
add_node-12-1 	 2313.903627
add_node-16-1 	 9255.614506
add_node-28-1 	 6427.510074
add_node-41-1 	 9255.614506
add_node-51-1 	 6427.510074
add_node-56-1 	 6427.510074
add_node-77-1 	 25710.040295
add_node-78-1 	 6427.510074

[DEMANDS]
1 	 40.000000
2 	 82.000000
3 	 56.000000
4 	 69.000000
5 	 99.000000
6 	 233.000000
7 	 121.000000
8 	 266.000000
9 	 276.000000
10 	 205.000000
11 	 27.000000
12 	 174.000000
13 	 147.000000
14 	 151.000000
15 	 47.000000
16 	 76.000000
17 	 122.000000
18 	 123.000000
19 	 120.000000
20 	 59.000000
21 	 116.000000
22 	 286.000000
23 	 194.000000
24 	 100.000000
25 	 138.000000
26 	 76.000000
27 	 83.000000
28 	 220.000000
29 	 168.000000
30 	 117.000000
31 	 14.000000
32 	 141.000000
33 	 96.000000
34 	 85.000000
35 	 82.000000
36 	 123.000000
37 	 86.000000
38 	 191.000000
39 	 47.000000
40 	 210.000000
41 	 80.000000
42 	 137.000000
43 	 72.000000
44 	 39.000000
45 	 38.000000
46 	 28.000000
47 	 408.000000
48 	 28.000000
49 	 94.000000
add_node-3-1 	 0.000000
add_node-4-1 	 0.000000
add_node-12-1 	 0.000000
add_node-16-1 	 0.000000
add_node-28-1 	 0.000000
add_node-41-1 	 0.000000
add_node-51-1 	 0.000000
add_node-56-1 	 0.000000
add_node-77-1 	 0.000000
add_node-78-1 	 0.000000

[OPTIONS]
UNITS 	 LPS 	 
PRESSURE 	 METERS 	 
HEADLOSS 	 H-W 	 
UNBALANCED 	 STOP 	 
QUALITY 	 NONE 	 
DEMAND 	 MULTIPLIER 	 1.0000
EMITTER 	 EXPONENT 	 0.5000
VISCOSITY 	 1.000000 	 
DIFFUSIVITY 	 1.000000 	 
SPECIFIC 	 GRAVITY 	 0.998000
TRIALS 	 40 	 
ACCURACY 	 0.00100000 	 
TOLERANCE 	 0.01000000 	 
CHECKFREQ 	 2 	 
MAXCHECK 	 10 	 
DAMPLIMIT 	 0.00000000 	 

[COORDINATES]
2 	 0.000000 	 -5.000000
1 	 0.000000 	 0.000000
3 	 5.000000 	 0.000000
5 	 5.000000 	 -5.000000
4 	 10.000000 	 -5.000000
6 	 0.000000 	 -10.000000
7 	 -5.000000 	 -10.000000
8 	 -25.000000 	 -5.000000
9 	 -15.000000 	 -10.000000
10 	 -20.000000 	 -10.000000
11 	 -30.000000 	 -20.000000
12 	 -25.000000 	 -20.000000
13 	 -20.000000 	 -20.000000
14 	 -15.000000 	 -20.000000
15 	 25.000000 	 -5.000000
16 	 5.000000 	 -10.000000
17 	 -5.000000 	 -15.000000
18 	 -10.000000 	 -15.000000
19 	 -10.000000 	 -20.000000
20 	 30.000000 	 -5.000000
21 	 25.000000 	 -10.000000
22 	 15.000000 	 -15.000000
23 	 5.000000 	 -20.000000
24 	 0.000000 	 -20.000000
25 	 -5.000000 	 -20.000000
26 	 -15.000000 	 -25.000000
27 	 30.000000 	 -10.000000
28 	 15.000000 	 -20.000000
29 	 10.000000 	 -20.000000
30 	 10.000000 	 -25.000000
31 	 -10.000000 	 -25.000000
32 	 -15.000000 	 -35.000000
33 	 35.000000 	 -15.000000
34 	 30.000000 	 -15.000000
35 	 25.000000 	 -20.000000
36 	 20.000000 	 -20.000000
37 	 10.000000 	 -30.000000
38 	 -5.000000 	 -30.000000
39 	 -10.000000 	 -35.000000
40 	 15.000000 	 -35.000000
41 	 30.000000 	 -20.000000
42 	 25.000000 	 -25.000000
43 	 20.000000 	 -25.000000
44 	 15.000000 	 -30.000000
45 	 3.000000 	 -30.000000
46 	 -5.000000 	 -35.000000
47 	 30.000000 	 -25.000000
48 	 20.000000 	 -30.000000
49 	 35.000000 	 -20.000000
53 	 40.000000 	 -15.000000
52 	 40.000000 	 -20.000000
51 	 -30.000000 	 -25.000000
50 	 -5.000000 	 0.000000
add_node-3-1 	 0.034815 	 -4.965185
add_node-4-1 	 7.552278 	 -2.552278
add_node-12-1 	 -20.000000 	 -10.451827
add_node-16-1 	 -3.406784 	 -10.000000
add_node-22-1 	 -15.000000 	 -20.601782
add_node-28-1 	 0.000000 	 -10.444245
add_node-41-1 	 30.000000 	 -16.023108
add_node-51-1 	 -0.796863 	 -20.000000
add_node-56-1 	 23.000374 	 -25.000000
add_node-77-1 	 35.557216 	 -20.000000
add_node-78-1 	 38.901406 	 -15.000000

[END]