[TITLE]

[JUNCTIONS]
 1                                     9.2000
 2                                     8.0000
 3                                    10.2000
 4                                    10.0000
 5                                    11.0000
 6                                    15.0000
 7                                    12.0000
 8                                    11.4000
 9                                    10.5000
 10                                   12.0000
 11                                   12.9000
 12                                   17.6000
 13                                   12.0000
 14                                   10.6000
 15                                    9.0000
 16                                   11.8000
 17                                   14.5000
 18                                   10.9000
 19                                   10.0000
 20                                   10.6000
 21                                    9.3000
 22                                   11.5000
 23                                   18.0000
 24                                   10.0000
 25                                   10.8000
 26                                   13.3000
 27                                    9.0000
 28                                   10.4000
 29                                   11.2000
 30                                    9.5000
 31                                    9.2000
 32                                   20.5000
 33                                    9.6000
 34                                   18.0000
 35                                   18.8000
 36                                   11.7000
 37                                    9.4000
 38                                    9.1000
 39                                    9.8000
 40                                   12.0000
 41                                   30.5000
 42                                   12.0000
 43                                   12.1000
 44                                   15.0000
 45                                    9.1000
 46                                    9.6000
 47                                   15.5000
 48                                   18.8000
 49                                    9.7000
 add_node-8-1                         10.2762
 add_node-12-1                        12.0000
 add_node-13-1                        17.1254
 add_node-14-1                        16.5300
 add_node-19-1                        11.2837
 add_node-22-1                        11.8277
 add_node-25-1                         9.1156
 add_node-30-1                        10.3663
 add_node-53-1                        17.9811
 add_node-57-1                        12.0675
 add_node-58-1                        16.5537
 add_node-67-1                        12.0026
 add_node-74-1                         9.5159
 add_node-77-1                        78.0311

[RESERVOIRS]
 50                                   76.9500 
 53                                   81.9800 
 52                                   83.5800 
 51                                   74.3100 

[TANKS]

[PIPES]
 1                               1                               2                                  1200.0000    1400.0000      80.0000       0.0000 
 2                               1                               3                                  1400.0000     900.0000     120.0000       0.0000 
 3                               2                               3                                   800.0000     300.0000     120.0000       0.0000 
 4                               3                               4                                  2000.0000     300.0000     120.0000       0.0000 
 5                               3                               5                                  1300.0000     900.0000     120.0000       0.0000 
 6                               2                               6                                  2100.0000     750.0000     120.0000       0.0000 
 7                               2                               7                                  2600.0000     600.0000     120.0000       0.0000 
 9                               8                               9                                   800.0000    1000.0000     120.0000       0.0000 
 10                              9                               18                                  600.0000     700.0000     120.0000       0.0000 
 11                              9                               10                                 1300.0000     300.0000     120.0000       0.0000 
 15                              14                              13                                  500.0000     500.0000     120.0000       0.0000 
 16                              6                               7                                  1400.0000     600.0000     120.0000       0.0000 
 17                              7                               9                                  1500.0000     500.0000     120.0000       0.0000 
 18                              7                               18                                 1100.0000     500.0000     120.0000       0.0000 
 20                              18                              19                                 1400.0000     500.0000     120.0000       0.0000 
 21                              9                               14                                 1200.0000     850.0000     120.0000       0.0000 
 23                              14                              19                                  700.0000     500.0000     120.0000       0.0000 
 24                              7                               17                                 1000.0000     600.0000     120.0000       0.0000 
 26                              5                               4                                  2300.0000     500.0000     120.0000       0.0000 
 27                              5                               16                                 1100.0000     900.0000     120.0000       0.0000 
 28                              6                               24                                 2600.0000     500.0000     120.0000       0.0000 
 29                              17                              25                                  750.0000     600.0000     120.0000       0.0000 
 31                              19                              26                                 1600.0000     500.0000     120.0000       0.0000 
 32                              15                              20                                  500.0000     300.0000     120.0000       0.0000 
 33                              15                              21                                 1400.0000     200.0000     120.0000       0.0000 
 34                              16                              21                                 2900.0000     500.0000     120.0000       0.0000 
 35                              16                              23                                 2700.0000     700.0000     120.0000       0.0000 
 36                              27                              20                                 1200.0000     500.0000     120.0000       0.0000 
 37                              27                              21                                 1050.0000     500.0000     120.0000       0.0000 
 38                              21                              22                                 1200.0000     500.0000     120.0000       0.0000 
 39                              33                              34                                 1000.0000     500.0000     120.0000       0.0000 
 40                              34                              27                                 1500.0000     500.0000     120.0000       0.0000 
 41                              41                              34                                 1000.0000     600.0000     120.0000       0.0000 
 42                              28                              22                                 2000.0000     300.0000     120.0000       0.0000 
 43                              29                              22                                 2900.0000     500.0000     120.0000       0.0000 
 44                              49                              41                                 3000.0000    1600.0000      90.0000       0.0000 
 45                              41                              35                                 1700.0000    1400.0000      90.0000       0.0000 
 46                              35                              36                                  850.0000    1400.0000      90.0000       0.0000 
 47                              36                              28                                 1400.0000    1100.0000     100.0000       0.0000 
 48                              28                              29                                 1100.0000    1100.0000     100.0000       0.0000 
 49                              23                              29                                  950.0000     850.0000      90.0000       0.0000 
 50                              23                              24                                  950.0000     500.0000     120.0000       0.0000 
 51                              24                              25                                  900.0000     500.0000     120.0000       0.0000 
 52                              29                              30                                 3000.0000     700.0000     120.0000       0.0000 
 54                              35                              42                                 1200.0000     500.0000     120.0000       0.0000 
 55                              42                              47                                 1500.0000     500.0000     120.0000       0.0000 
 56                              42                              43                                 1000.0000     500.0000     120.0000       0.0000 
 59                              48                              44                                  800.0000    1000.0000     120.0000       0.0000 
 60                              37                              44                                 1750.0000     600.0000     120.0000       0.0000 
 61                              30                              37                                 1100.0000     500.0000     120.0000       0.0000 
 62                              37                              45                                  550.0000     500.0000     120.0000       0.0000 
 63                              45                              38                                  480.0000     400.0000     120.0000       0.0000 
 64                              25                              38                                 2820.0000     700.0000     120.0000       0.0000 
 65                              38                              46                                  680.0000     600.0000     120.0000       0.0000 
 66                              40                              46                                  550.0000     500.0000     120.0000       0.0000 
 68                              46                              39                                 1000.0000     500.0000     120.0000       0.0000 
 69                              31                              39                                 1400.0000     300.0000     120.0000       0.0000 
 70                              26                              31                                  650.0000     500.0000     120.0000       0.0000 
 71                              26                              32                                 1400.0000     500.0000     120.0000       0.0000 
 72                              39                              32                                 1000.0000     500.0000     120.0000       0.0000 
 73                              11                              12                                  900.0000     500.0000     120.0000       0.0000 
 75                              50                              1                                  1742.0000    1000.0000     120.0000       0.0000 
 76                              11                              51                                 6636.3000     500.0000     120.0000       0.0000 
 78                              33                              53                                 8577.1000     500.0000     120.0000       0.0000 
 addP-8-1                        2                               add_node-8-1                       2343.1433    1000.0000     120.0000       0.0000 
 addP-12-1                       13                              add_node-12-1                       241.6655     300.0000     120.0000       0.0000 
 addP-13-1                       8                               add_node-13-1                      3416.7966     500.0000     120.0000       0.0000 
 addP-14-1                       12                              add_node-14-1                       277.0420     500.0000     120.0000       0.0000 
 addP-19-1                       18                              add_node-19-1                        95.9359     500.0000     120.0000       0.0000 
 addP-22-1                       14                              add_node-22-1                       727.5277     500.0000     120.0000       0.0000 
 addP-25-1                       4                               add_node-25-1                      1547.7213     300.0000     120.0000       0.0000 
 addP-30-1                       25                              add_node-30-1                       704.8025     500.0000     120.0000       0.0000 
 addP-53-1                       41                              add_node-53-1                      2628.9595     500.0000     120.0000       0.0000 
 addP-57-1                       36                              add_node-57-1                      1010.4967     500.0000     120.0000       0.0000 
 addP-58-1                       43                              add_node-58-1                      2393.0424    1000.0000     120.0000       0.0000 
 addP-67-1                       44                              add_node-67-1                      2797.5434     700.0000     120.0000       0.0000 
 addP-74-1                       24                              add_node-74-1                      1065.0370     500.0000     120.0000       0.0000 
 addP-77-1                       49                              add_node-77-1                      3942.6341    1000.0000     120.0000       0.0000 

[PUMPS]

[VALVES]

[DEMANDS]
 1                                    40.000000 
 2                                    82.000000 
 3                                    56.000000 
 4                                    69.000000 
 5                                    99.000000 
 6                                   162.286224 
 7                                    75.070671 
 8                                    63.148083 
 9                                   104.923424 
 10                                    0.000000 
 11                                   27.000000 
 12                                   36.444729 
 13                                    0.000000 
 14                                   54.285767 
 15                                   47.000000 
 16                                   76.000000 
 17                                    0.000000 
 18                                   37.996880 
 19                                   51.662354 
 20                                   59.000000 
 21                                  116.000000 
 22                                  274.152008 
 23                                  139.833527 
 24                                   71.507935 
 25                                   65.848557 
 26                                    0.000000 
 27                                   83.000000 
 28                                  220.000000 
 29                                  168.000000 
 30                                  111.143326 
 31                                    7.333274 
 32                                    0.000000 
 33                                   96.000000 
 34                                   85.000000 
 35                                   78.294189 
 36                                  123.000000 
 37                                   54.550098 
 38                                  110.972343 
 39                                   22.377462 
 40                                   33.105133 
 41                                   28.278912 
 42                                  107.223068 
 43                                   48.349426 
 44                                    0.000000 
 45                                   23.906475 
 46                                   14.515271 
 47                                  132.918610 
 48                                    0.000000 
 49                                   94.000000 
 add_node-8-1                          0.000000 
 add_node-12-1                         0.000000 
 add_node-13-1                         0.000000 
 add_node-14-1                         0.000000 
 add_node-19-1                         0.000000 
 add_node-22-1                         0.000000 
 add_node-25-1                         0.000000 
 add_node-30-1                         0.000000 
 add_node-53-1                         0.000000 
 add_node-57-1                         0.000000 
 add_node-58-1                         0.000000 
 add_node-67-1                         0.000000 
 add_node-74-1                         0.000000 
 add_node-77-1                         0.000000 

[EMITTERS]
 add_node-8-1                      25710.040295
 add_node-12-1                      2313.903627
 add_node-13-1                      6427.510074
 add_node-14-1                      6427.510074
 add_node-19-1                      6427.510074
 add_node-22-1                      6427.510074
 add_node-25-1                      2313.903627
 add_node-30-1                      6427.510074
 add_node-53-1                      6427.510074
 add_node-57-1                      6427.510074
 add_node-58-1                     25710.040295
 add_node-67-1                     12597.919744
 add_node-74-1                      6427.510074
 add_node-77-1                     25710.040295

[STATUS]

[PATTERNS]

[CURVES]

[CONTROLS]

[QUALITY]

[SOURCES]

[MIXING]

[REACTIONS]
 ORDER  BULK            1.00
 ORDER  WALL            1
 ORDER  TANK            1.00
 GLOBAL BULK            0.000000
 GLOBAL WALL            0.000000

[ENERGY]
 GLOBAL EFFIC        75.0000
 DEMAND CHARGE       0.0000

[TIMES]
 DURATION            0:00:00
 HYDRAULIC TIMESTEP  1:00:00
 QUALITY TIMESTEP    0:06:00
 REPORT TIMESTEP     1:00:00
 REPORT START        0:00:00
 PATTERN TIMESTEP    1:00:00
 PATTERN START       0:00:00
 RULE TIMESTEP       0:06:00
 START CLOCKTIME     0:00:00
 STATISTIC           NONE

[OPTIONS]
 UNITS               LPS
 PRESSURE            METERS
 HEADLOSS            H-W
 UNBALANCED          STOP
 QUALITY             NONE
 DEMAND MULTIPLIER   1.0000
 EMITTER EXPONENT    0.5000
 VISCOSITY           1.000000
 DIFFUSIVITY         1.000000
 SPECIFIC GRAVITY    0.998000
 TRIALS              40
 ACCURACY            0.00100000
 TOLERANCE           0.01000000
 CHECKFREQ           2
 MAXCHECK            10
 DAMPLIMIT           0.00000000

[REPORT]
 PAGESIZE            0
 STATUS              NO
 SUMMARY             YES
 ENERGY              NO
 NODES               NONE
 LINKS               NONE
 Elevation           NO
 Demand              PRECISION 2
 Head                PRECISION 2
 Pressure            PRECISION 2
 Quality             NO
 Length              NO
 Diameter            NO
 Flow                PRECISION 2
 Velocity            PRECISION 2
 Headloss            PRECISION 2
 Quality             NO
 State               NO
 Setting             NO
 Reaction            NO
[COORDINATES]
2 	 0.000000 	 -5.000000
1 	 0.000000 	 0.000000
3 	 5.000000 	 0.000000
5 	 5.000000 	 -5.000000
4 	 10.000000 	 -5.000000
6 	 0.000000 	 -10.000000
7 	 -5.000000 	 -10.000000
8 	 -25.000000 	 -5.000000
9 	 -15.000000 	 -10.000000
10 	 -20.000000 	 -10.000000
11 	 -30.000000 	 -20.000000
12 	 -25.000000 	 -20.000000
13 	 -20.000000 	 -20.000000
14 	 -15.000000 	 -20.000000
15 	 25.000000 	 -5.000000
16 	 5.000000 	 -10.000000
17 	 -5.000000 	 -15.000000
18 	 -10.000000 	 -15.000000
19 	 -10.000000 	 -20.000000
20 	 30.000000 	 -5.000000
21 	 25.000000 	 -10.000000
22 	 15.000000 	 -15.000000
23 	 5.000000 	 -20.000000
24 	 0.000000 	 -20.000000
25 	 -5.000000 	 -20.000000
26 	 -15.000000 	 -25.000000
27 	 30.000000 	 -10.000000
28 	 15.000000 	 -20.000000
29 	 10.000000 	 -20.000000
30 	 10.000000 	 -25.000000
31 	 -10.000000 	 -25.000000
32 	 -15.000000 	 -35.000000
33 	 35.000000 	 -15.000000
34 	 30.000000 	 -15.000000
35 	 25.000000 	 -20.000000
36 	 20.000000 	 -20.000000
37 	 10.000000 	 -30.000000
38 	 -5.000000 	 -30.000000
39 	 -10.000000 	 -35.000000
40 	 15.000000 	 -35.000000
41 	 30.000000 	 -20.000000
42 	 25.000000 	 -25.000000
43 	 20.000000 	 -25.000000
44 	 15.000000 	 -30.000000
45 	 3.000000 	 -30.000000
46 	 -5.000000 	 -35.000000
47 	 30.000000 	 -25.000000
48 	 20.000000 	 -30.000000
49 	 35.000000 	 -20.000000
53 	 40.000000 	 -15.000000
52 	 40.000000 	 -20.000000
51 	 -30.000000 	 -25.000000
50 	 -5.000000 	 0.000000
add_node-8-1 	 -16.736738 	 -5.000000
add_node-12-1 	 -20.000000 	 -18.141035
add_node-13-1 	 -25.000000 	 -18.851878
add_node-14-1 	 -24.044683 	 -20.000000
add_node-19-1 	 -9.467023 	 -15.000000
add_node-22-1 	 -15.000000 	 -22.273524
add_node-25-1 	 23.266182 	 -5.000000
add_node-30-1 	 -7.710779 	 -20.000000
add_node-53-1 	 30.000000 	 -24.172952
add_node-57-1 	 20.000000 	 -24.593167
add_node-58-1 	 20.000000 	 -28.323670
add_node-67-1 	 15.000000 	 -34.995613
add_node-74-1 	 9.682155 	 -24.841077
add_node-77-1 	 39.624465 	 -20.000000


[END]