[TITLE]
Scenario:	»ù´¡	 
Date:	2013-9-11	19:48:06 

[JUNCTIONS]
 1                                     9.2000
 2                                     8.0000
 3                                    10.2000
 4                                    10.0000
 5                                    11.0000
 6                                    15.0000
 7                                    12.0000
 8                                    11.4000
 9                                    10.5000
 10                                   12.0000
 11                                   12.9000
 12                                   17.6000
 13                                   12.0000
 14                                   10.6000
 15                                    9.0000
 16                                   11.8000
 17                                   14.5000
 18                                   10.9000
 19                                   10.0000
 20                                   10.6000
 21                                    9.3000
 22                                   11.5000
 23                                   18.0000
 24                                   10.0000
 25                                   10.8000
 26                                   13.3000
 27                                    9.0000
 28                                   10.4000
 29                                   11.2000
 30                                    9.5000
 31                                    9.2000
 32                                   20.5000
 33                                    9.6000
 34                                   18.0000
 35                                   18.8000
 36                                   11.7000
 37                                    9.4000
 38                                    9.1000
 39                                    9.8000
 40                                   12.0000
 41                                   30.5000
 42                                   12.0000
 43                                   12.1000
 44                                   15.0000
 45                                    9.1000
 46                                    9.6000
 47                                   15.5000
 48                                   18.8000
 49                                    9.7000

[RESERVOIRS]
 50                                   76.9500 
 53                                   81.9800 
 52                                   83.5800 
 51                                   74.3100 

[TANKS]

[PIPES]
 1                               1                               2                                  1200.0000    1400.0000      80.0000       0.0000 
 2                               1                               3                                  1400.0000     900.0000     120.0000       0.0000 
 3                               2                               3                                   800.0000     300.0000     120.0000       0.0000 
 4                               3                               4                                  2000.0000     300.0000     120.0000       0.0000 
 5                               3                               5                                  1300.0000     900.0000     120.0000       0.0000 
 6                               2                               6                                  2100.0000     750.0000     120.0000       0.0000 
 7                               2                               7                                  2600.0000     600.0000     120.0000       0.0000 
 8                               2                               8                                  3500.0000    1000.0000     120.0000       0.0000 
 9                               8                               9                                   800.0000    1000.0000     120.0000       0.0000 
 10                              9                               18                                  600.0000     700.0000     120.0000       0.0000 
 11                              9                               10                                 1300.0000     300.0000     120.0000       0.0000 
 12                              13                              10                                 1300.0000     300.0000     120.0000       0.0000 
 13                              8                               12                                 3700.0000     500.0000     120.0000       0.0000 
 14                              12                              13                                 1450.0000     500.0000     120.0000       0.0000 
 15                              14                              13                                  500.0000     500.0000     120.0000       0.0000 
 16                              6                               7                                  1400.0000     600.0000     120.0000       0.0000 
 17                              7                               9                                  1500.0000     500.0000     120.0000       0.0000 
 18                              7                               18                                 1100.0000     500.0000     120.0000       0.0000 
 19                              18                              17                                  900.0000     500.0000     120.0000       0.0000 
 20                              18                              19                                 1400.0000     500.0000     120.0000       0.0000 
 21                              9                               14                                 1200.0000     850.0000     120.0000       0.0000 
 22                              14                              26                                 1600.0000     500.0000     120.0000       0.0000 
 23                              14                              19                                  700.0000     500.0000     120.0000       0.0000 
 24                              7                               17                                 1000.0000     600.0000     120.0000       0.0000 
 25                              4                               15                                 1750.0000     300.0000     120.0000       0.0000 
 26                              5                               4                                  2300.0000     500.0000     120.0000       0.0000 
 27                              5                               16                                 1100.0000     900.0000     120.0000       0.0000 
 28                              6                               24                                 2600.0000     500.0000     120.0000       0.0000 
 29                              17                              25                                  750.0000     600.0000     120.0000       0.0000 
 30                              25                              19                                 1300.0000     500.0000     120.0000       0.0000 
 31                              19                              26                                 1600.0000     500.0000     120.0000       0.0000 
 32                              15                              20                                  500.0000     300.0000     120.0000       0.0000 
 33                              15                              21                                 1400.0000     200.0000     120.0000       0.0000 
 34                              16                              21                                 2900.0000     500.0000     120.0000       0.0000 
 35                              16                              23                                 2700.0000     700.0000     120.0000       0.0000 
 36                              27                              20                                 1200.0000     500.0000     120.0000       0.0000 
 37                              27                              21                                 1050.0000     500.0000     120.0000       0.0000 
 38                              21                              22                                 1200.0000     500.0000     120.0000       0.0000 
 39                              33                              34                                 1000.0000     500.0000     120.0000       0.0000 
 40                              34                              27                                 1500.0000     500.0000     120.0000       0.0000 
 41                              41                              34                                 1000.0000     600.0000     120.0000       0.0000 
 42                              28                              22                                 2000.0000     300.0000     120.0000       0.0000 
 43                              29                              22                                 2900.0000     500.0000     120.0000       0.0000 
 44                              49                              41                                 3000.0000    1600.0000      90.0000       0.0000 
 45                              41                              35                                 1700.0000    1400.0000      90.0000       0.0000 
 46                              35                              36                                  850.0000    1400.0000      90.0000       0.0000 
 47                              36                              28                                 1400.0000    1100.0000     100.0000       0.0000 
 48                              28                              29                                 1100.0000    1100.0000     100.0000       0.0000 
 49                              23                              29                                  950.0000     850.0000      90.0000       0.0000 
 50                              23                              24                                  950.0000     500.0000     120.0000       0.0000 
 51                              24                              25                                  900.0000     500.0000     120.0000       0.0000 
 52                              29                              30                                 3000.0000     700.0000     120.0000       0.0000 
 53                              41                              47                                 3150.0000     500.0000     120.0000       0.0000 
 54                              35                              42                                 1200.0000     500.0000     120.0000       0.0000 
 55                              42                              47                                 1500.0000     500.0000     120.0000       0.0000 
 56                              42                              43                                 1000.0000     500.0000     120.0000       0.0000 
 57                              36                              43                                 1100.0000     500.0000     120.0000       0.0000 
 58                              43                              48                                 3600.0000    1000.0000     120.0000       0.0000 
 59                              48                              44                                  800.0000    1000.0000     120.0000       0.0000 
 60                              37                              44                                 1750.0000     600.0000     120.0000       0.0000 
 61                              30                              37                                 1100.0000     500.0000     120.0000       0.0000 
 62                              37                              45                                  550.0000     500.0000     120.0000       0.0000 
 63                              45                              38                                  480.0000     400.0000     120.0000       0.0000 
 64                              25                              38                                 2820.0000     700.0000     120.0000       0.0000 
 65                              38                              46                                  680.0000     600.0000     120.0000       0.0000 
 66                              40                              46                                  550.0000     500.0000     120.0000       0.0000 
 67                              44                              40                                 2800.0000     700.0000     120.0000       0.0000 
 68                              46                              39                                 1000.0000     500.0000     120.0000       0.0000 
 69                              31                              39                                 1400.0000     300.0000     120.0000       0.0000 
 70                              26                              31                                  650.0000     500.0000     120.0000       0.0000 
 71                              26                              32                                 1400.0000     500.0000     120.0000       0.0000 
 72                              39                              32                                 1000.0000     500.0000     120.0000       0.0000 
 73                              11                              12                                  900.0000     500.0000     120.0000       0.0000 
 74                              24                              30                                 1100.0000     500.0000     120.0000       0.0000 
 75                              50                              1                                  1742.0000    1000.0000     120.0000       0.0000 
 76                              11                              51                                 6636.3000     500.0000     120.0000       0.0000 
 77                              49                              52                                 4262.8000    1000.0000     120.0000       0.0000 
 78                              33                              53                                 8577.1000     500.0000     120.0000       0.0000 

[PUMPS]

[VALVES]

[DEMANDS]
 1                                    40.000000 
 2                                    82.000000 
 3                                    56.000000 
 4                                    69.000000 
 5                                    99.000000 
 6                                   233.000000 
 7                                   121.000000 
 8                                   266.000000 
 9                                   276.000000 
 10                                  205.000000 
 11                                   27.000000 
 12                                  174.000000 
 13                                  147.000000 
 14                                  151.000000 
 15                                   47.000000 
 16                                   76.000000 
 17                                  122.000000 
 18                                  123.000000 
 19                                  120.000000 
 20                                   59.000000 
 21                                  116.000000 
 22                                  286.000000 
 23                                  194.000000 
 24                                  100.000000 
 25                                  138.000000 
 26                                   76.000000 
 27                                   83.000000 
 28                                  220.000000 
 29                                  168.000000 
 30                                  117.000000 
 31                                   14.000000 
 32                                  141.000000 
 33                                   96.000000 
 34                                   85.000000 
 35                                   82.000000 
 36                                  123.000000 
 37                                   86.000000 
 38                                  191.000000 
 39                                   47.000000 
 40                                  210.000000 
 41                                   80.000000 
 42                                  137.000000 
 43                                   72.000000 
 44                                   39.000000 
 45                                   38.000000 
 46                                   28.000000 
 47                                  408.000000 
 48                                   28.000000 
 49                                   94.000000 

[EMITTERS]

[STATUS]

[PATTERNS]

[CURVES]

[CONTROLS]

[QUALITY]

[SOURCES]

[MIXING]

[REACTIONS]
 ORDER  BULK            1.00
 ORDER  WALL            1
 ORDER  TANK            1.00
 GLOBAL BULK            0.000000
 GLOBAL WALL            0.000000

[ENERGY]
 GLOBAL EFFIC        75.0000
 DEMAND CHARGE       0.0000

[TIMES]
 DURATION            0:00:00
 HYDRAULIC TIMESTEP  1:00:00
 QUALITY TIMESTEP    0:06:00
 REPORT TIMESTEP     1:00:00
 REPORT START        0:00:00
 PATTERN TIMESTEP    1:00:00
 PATTERN START       0:00:00
 RULE TIMESTEP       0:06:00
 START CLOCKTIME     0:00:00
 STATISTIC           NONE

[OPTIONS]
 UNITS               LPS
 PRESSURE            METERS
 HEADLOSS            H-W
 UNBALANCED          STOP
 QUALITY             NONE
 DEMAND MULTIPLIER   1.0000
 EMITTER EXPONENT    0.5000
 VISCOSITY           1.000000
 DIFFUSIVITY         1.000000
 SPECIFIC GRAVITY    0.998000
 TRIALS              40
 ACCURACY            0.00100000
 TOLERANCE           0.01000000
 CHECKFREQ           2
 MAXCHECK            10
 DAMPLIMIT           0.00000000

[REPORT]
 PAGESIZE            0
 STATUS              NO
 SUMMARY             YES
 ENERGY              NO
 NODES               NONE
 LINKS               NONE
 Elevation           NO
 Demand              PRECISION 2
 Head                PRECISION 2
 Pressure            PRECISION 2
 Quality             NO
 Length              NO
 Diameter            NO
 Flow                PRECISION 2
 Velocity            PRECISION 2
 Headloss            PRECISION 2
 Quality             NO
 State               NO
 Setting             NO
 Reaction            NO
[COORDINATES]		
2	0	-5
1	0	0
3	5	0
5	5	-5
4	10	-5
6	0	-10
7	-5	-10
8	-25	-5
9	-15	-10
10	-20	-10
11	-30	-20
12	-25	-20
13	-20	-20
14	-15	-20
15	25	-5
16	5	-10
17	-5	-15
18	-10	-15
19	-10	-20
20	30	-5
21	25	-10
22	15	-15
23	5	-20
24	0	-20
25	-5	-20
26	-15	-25
27	30	-10
28	15	-20
29	10	-20
30	10	-25
31	-10	-25
32	-15	-35
33	35	-15
34	30	-15
35	25	-20
36	20	-20
37	10	-30
38	-5	-30
39	-10	-35
40	15	-35
41	30	-20
42	25	-25
43	20	-25
44	15	-30
45	3	-30
46	-5	-35
47	30	-25
48	20	-30
49	35	-20
53	40	-15
52	40	-20
51	-30	-25
50	-5	0

[VERTICES]		


[END]