[TITLE]

[JUNCTIONS]
11 	 12.900000
49 	 9.700000
add_node-73-1 	 16.609618
add_node-75-1 	 62.471050

[RESERVOIRS]
50 	 76.950000
53 	 81.980000
52 	 83.580000
51 	 74.310000
add_node-44-1 	 27.642840

[PIPES]
76 	 11 	51 	 6636.300000 	 500.000000 	 120.000000 	 0.000000
77 	 49 	52 	 4262.800000 	 1000.000000 	 120.000000 	 0.000000
addP-44-1 	 49 	add_node-44-1 	 2587.909553 	 1600.000000 	 90.000000 	 0.000000
addP-73-1 	 11 	add_node-73-1 	 710.352414 	 500.000000 	 120.000000 	 0.000000
addP-75-1 	 50 	add_node-75-1 	 372.285334 	 1000.000000 	 120.000000 	 0.000000

[EMITTERS]
add_node-73-1 	 6427.510074
add_node-75-1 	 25710.040295

[DEMANDS]
11 	 27.000000
49 	 94.000000
add_node-73-1 	 0.000000
add_node-75-1 	 0.000000

[OPTIONS]
UNITS 	 LPS 	 
PRESSURE 	 METERS 	 
HEADLOSS 	 H-W 	 
UNBALANCED 	 STOP 	 
QUALITY 	 NONE 	 
DEMAND 	 MULTIPLIER 	 1.0000
EMITTER 	 EXPONENT 	 0.5000
VISCOSITY 	 1.000000 	 
DIFFUSIVITY 	 1.000000 	 
SPECIFIC 	 GRAVITY 	 0.998000
TRIALS 	 40 	 
ACCURACY 	 0.00100000 	 
TOLERANCE 	 0.01000000 	 
CHECKFREQ 	 2 	 
MAXCHECK 	 10 	 
DAMPLIMIT 	 0.00000000 	 

[COORDINATES]
11 	 -30.000000 	 -20.000000
49 	 35.000000 	 -20.000000
53 	 40.000000 	 -15.000000
52 	 40.000000 	 -20.000000
51 	 -30.000000 	 -25.000000
50 	 -5.000000 	 0.000000
add_node-44-1 	 30.686817 	 -20.000000
add_node-73-1 	 -26.053598 	 -20.000000
add_node-75-1 	 -3.931443 	 0.000000

[END]