[TITLE]

[JUNCTIONS]
49 	 9.700000
add_node-44-1 	 10.026600
add_node-75-1 	 36.913278

[RESERVOIRS]
50 	 76.950000
53 	 81.980000
52 	 83.580000
51 	 74.310000

[PIPES]
77 	 49 	52 	 4262.800000 	 1000.000000 	 120.000000 	 0.000000
addP-44-1 	 49 	add_node-44-1 	 47.105794 	 1600.000000 	 90.000000 	 0.000000
addP-75-1 	 50 	add_node-75-1 	 1029.431276 	 1000.000000 	 120.000000 	 0.000000

[EMITTERS]
add_node-44-1 	 65817.703155
add_node-75-1 	 25710.040295

[DEMANDS]
49 	 94.000000
add_node-44-1 	 0.000000
add_node-75-1 	 0.000000

[OPTIONS]
UNITS 	 LPS 	 
PRESSURE 	 METERS 	 
HEADLOSS 	 H-W 	 
UNBALANCED 	 STOP 	 
QUALITY 	 NONE 	 
DEMAND 	 MULTIPLIER 	 1.0000
EMITTER 	 EXPONENT 	 0.5000
VISCOSITY 	 1.000000 	 
DIFFUSIVITY 	 1.000000 	 
SPECIFIC 	 GRAVITY 	 0.998000
TRIALS 	 40 	 
ACCURACY 	 0.00100000 	 
TOLERANCE 	 0.01000000 	 
CHECKFREQ 	 2 	 
MAXCHECK 	 10 	 
DAMPLIMIT 	 0.00000000 	 

[COORDINATES]
49 	 35.000000 	 -20.000000
53 	 40.000000 	 -15.000000
52 	 40.000000 	 -20.000000
51 	 -30.000000 	 -25.000000
50 	 -5.000000 	 0.000000
add_node-44-1 	 34.921490 	 -20.000000
add_node-75-1 	 -2.045260 	 0.000000

[END]